<routes>
	<vType id="agv" type="e-scooter" length="1.1" width="0.4" accel="10" decel="10" sigma="0"/>
  	<vType id="pedestrian" vClass="pedestrian"/>
    <route id="route_0" edges="-E491 -E490 -E489 -E488 -E487 -E486 -E485 -E484 -E483 E82 E83 E84 E85 E86 E611 E612 E613 E614 E298 E299 E280 E281 E282 E283 E579 E580 E581 E582 E101 E0 E1 E627 E628 -E118 -E117 -E116 -E115 -E114 -E113 -E112 -E111 -E110 E4 E105 E182 E131 E132 E133 E134 E135 E136 E137 E138 E619 E620 E368 E369 E370 E371 E372 E373 -E503 -E502 -E501"/>
    <route id="route_1" edges="-E491 -E490 -E489 -E488 -E487 -E486 -E485 -E484 -E483 -E624 -E623 E185 E186 E187 E188 E189 E190 E191 E192 E193 -E130 -E129 -E171 -E170 -E169 -E168 -E167 -E166 -E165 -E164 -E163 E635 E636 -E56 -E55 -E54 -E53 -E52 E599 E600 E601 E602 -E243 -E242 -E241 -E240 -E259 -E258 -E606 -E605 -E604 -E603 -E37 -E36 -E35 -E34 -E33 E382 E383 E384 E385 E386 E387 E506 E507 E508"/>
    <route id="route_2" edges="-E491 -E490 -E489 -E488 -E487 -E486 -E485 -E484 -E483 -E624 -E623 E185 E186 E187 E188 E189 E190 E191 E192 E193 E4 E105 E182 E131 E132 -E205 -E204 E7 E8 E23 E24 E25 E615 E616 E617 E618 E227 E228 E229 E230 -E367 -E366 -E365 -E364 -E363 -E362 -E380 -E379 -E378 -E377 -E376 -E375 -E374 -E503 -E502 -E501"/>
    
    <route id="route_3" edges="-E500 -E499 -E498 -E497 -E496 -E495 -E494 -E493 -E492 -E79 -E78 -E77 -E76 -E74 E607 E608 E609 E610 -E261 -E260 -E279 -E278 -E277 -E276 E591 E592 E593 E594 -E59 -E58 -E57 -E56 -E55 -E634 -E633 -E158 -E157 -E156 -E155 -E154 -E153 -E152 -E151 -E150 -E149 -E148 -E147 -E146 -E145 -E144 -E143 -E142 -E141 E621 E622 E382 E383 E384 E385 E386 E387 E506 E507 E508"/>
    <route id="route_4" edges="-E500 -E499 -E498 -E497 -E496 -E495 -E494 -E493 -E492 E625 E626 -E180 -E179 -E178 -E177 -E176 -E175 -E174 -E173 -E172 -E109 -E108 -E107 -E106 -E181 -E128 -E127 -E126 -E125 -E124 -E123 -E122 -E121 -E120 -E119 -E118 -E117 -E116 -E115 -E114 -E113 -E112 -E111 -E110 E4 E105 E182 E131 E132 E133 E134 E135 E136 E137 E138 E619 E620 E368 E369 E370 E371 E372 E373 -E503 -E502 -E501"/>
    <route id="route_5" edges="-E500 -E499 -E498 -E497 -E496 -E495 -E494 -E493 -E492 E625 E626 -E180 -E179 -E178 -E177 -E176 -E175 -E174 -E173 -E172 E129 E130 E110 E111 E112 E113 E114 E115 E116 E117 E118 -E628 -E627 E2 E3 E9 E10 E11 E575 E576 E577 E578 -E220 -E239 -E238 -E237 -E236 -E235 -E234 -E233 -E232 -E231 -E367 -E366 -E365 -E364 -E363 -E362 -E380 -E379 -E378 -E377 -E376 -E375 -E374 E504 E505 E506 E507 E508"/>
    
    <route id="route_6" edges="E501 E502 E503 -E373 -E372 -E371 -E370 -E369 -E368 -E620 -E619 -E138 -E137 -E136 -E135 -E134 -E133 -E132 -E131 -E182 -E105 -E4 E110 E111 E112 E113 E114 E115 E116 E117 E118 -E628 -E627 E300 E301 E302 E303 E304 E305 E306 E307 E308 E311 E312 E313 E316 E317 E318 E319 E320 -E482 -E481 -E480 -E479 -E478 -E477 -E476 -E475 -E474 -E473 -E472 -E471 -E470 -E469 -E468 E489 E490 E491"/>
    <route id="route_7" edges="E501 E502 E503 -E373 -E372 -E371 -E370 -E369 -E368 E31 E32 E33 E34 E35 E36 E37 E38 E39 E40 E41 E42 E43 E44 E45 E46 E47 E48 E49 E50 E51 E52 E53 E54 E55 E56 -E636 -E635 E163 E164 E165 E166 E167 E168 E169 E170 E171 E172 E173 E174 E175 E176 E177 E178 E179 E180 -E626 -E625 E492 E493 E494 E495 E496 E497 E498 E499 E500"/>
    <route id="route_8" edges="E501 E502 E503 -E373 -E372 -E371 -E370 -E369 -E368 -E620 -E619 -E138 -E137 -E136 -E135 -E134 -E133 -E132 -E131 -E182 -E105 -E4 -E193 -E192 -E191 E194 E195 -E6 -E5 E90 E91 E92 E93 E94 E95 E96 E97 -E586 -E585 -E584 -E583 -E280 -E299 -E298 -E614 -E613 -E612 -E611 -E86 -E85 -E84 -E83 -E82 E483 E484 E485 E486 E487 E488 E489 E490 E491"/>
    
    <route id="route_9" edges="-E508 -E507 -E506 -E387 -E386 -E385 -E384 -E383 -E382 -E622 -E621 -E140 -E139 -E138 -E137 -E136 -E135 -E134 -E133 -E205 -E204 -E203 -E202 -E201 -E200 E127 E128 E181 -E105 -E4 -E193 -E192 -E191 -E190 -E189 -E188 -E187 -E186 -E185 E623 E624 E483 E484 E485 E486 E487 E488 E489 E490 E491"/>
    <route id="route_10" edges="-E508 -E507 -E506 E388 E389 E390 E391 E392 E393 E394 -E409 -E408 -E407 -E421 -E420 -E419 -E418 -E417 -E416 -E415 -E414 -E413 -E412 -E514 -E513 -E512 E424 E425 E426 E427 E428 E429 E430 -E638 -E637 E435 E436 E437 E438 E439 E440 E441 -E511 -E510 -E509 E446 E447 E448 E449 E450 E451 E452 E453 E454 E455 E456 E457 E458 E459 E460 E461 E462 E463 E464 E465 E498 E499 E500"/>
    <route id="route_11" edges="-E508 -E507 -E506 -E505 -E504 E374 E375 E376 E377 E378 E379 E380 -E361 -E360 -E359 -E346 -E345 -E344 -E343 -E342 -E341 -E340 -E339 -E338 -E337 -E334 -E333 -E332 -E329 -E328 -E327 -E326 -E325 -E324 -E323 -E640 -E639 -E301 -E300 E627 E628 -E118 -E117 -E116 -E115 -E114 -E113 -E112 -E111 -E110 -E130 -E129 E172 E173 E174 E175 E176 E177 E178 E179 E180 -E626 -E625 E492 E493 E494 E495 E496 E497 E498 E499 E500"/>
    
    <flow id="flow0" type="agv" route="route_0" begin="0" period="30" minGap="1.10" maxSpeed="4.00" number="0"/>
    <flow id="flow1" type="agv" route="route_1" begin="0" period="60" minGap="1.10" maxSpeed="4.00" number="0"/>
    <flow id="flow2" type="agv" route="route_2" begin="0" period="30" minGap="1.10" maxSpeed="4.00" number="0"/>
    <flow id="flow3" type="agv" route="route_3" begin="0" period="60" minGap="1.10" maxSpeed="4.00" number="0"/>
    <flow id="flow4" type="agv" route="route_4" begin="0" period="30" minGap="1.10" maxSpeed="4.00" number="0"/>
    <flow id="flow5" type="agv" route="route_5" begin="0" period="60" minGap="1.10" maxSpeed="4.00" number="0"/>
    <flow id="flow6" type="agv" route="route_6" begin="0" period="30" minGap="1.10" maxSpeed="4.00" number="0"/>
    <flow id="flow7" type="agv" route="route_7" begin="0" period="60" minGap="1.10" maxSpeed="4.00" number="0"/>
    <flow id="flow8" type="agv" route="route_8" begin="0" period="30" minGap="1.10" maxSpeed="4.00" number="0"/>
    <flow id="flow9" type="agv" route="route_9" begin="0" period="60" minGap="1.10" maxSpeed="4.00" number="1"/>
    <flow id="flow10" type="agv" route="route_10" begin="0" period="30" minGap="1.10" maxSpeed="4.00" number="0"/>
    <flow id="flow11" type="agv" route="route_11" begin="0" period="60" minGap="1.10" maxSpeed="4.00" number="1"/>
    
  
</routes>