<?xml version="1.0" encoding="UTF-8"?>

<!-- generated on 2022-10-29 23:05:04 by Eclipse SUMO netedit Version 1.14.1
<configuration xmlns:xsi="http://www.w3.org/2001/XMLSchema-instance" xsi:noNamespaceSchemaLocation="http://sumo.dlr.de/xsd/netconvertConfiguration.xsd">

    <input>
        <sumo-net-file value="D:\ONEDRIVER\OneDrive%20-%20Hanoi%20University%20of%20Science%20and%20Technology\Document\5thYear\gr2\week1\map2.net.xml"/>
    </input>

    <output>
        <output-file value="D:\ONEDRIVER\OneDrive%20-%20Hanoi%20University%20of%20Science%20and%20Technology\Document\5thYear\gr2\week1\map2.net.xml"/>
    </output>

    <processing>
        <geometry.min-radius.fix.railways value="false"/>
        <geometry.max-grade.fix value="false"/>
        <offset.disable-normalization value="true"/>
        <lefthand value="false"/>
    </processing>

    <junctions>
        <no-internal-links value="false"/>
        <no-turnarounds value="true"/>
        <junctions.corner-detail value="5"/>
        <junctions.limit-turn-speed value="5.5"/>
        <rectangular-lane-cut value="false"/>
    </junctions>

    <pedestrian>
        <walkingareas value="false"/>
    </pedestrian>

</configuration>
-->

<net version="1.9" junctionCornerDetail="5" limitTurnSpeed="5.50" xmlns:xsi="http://www.w3.org/2001/XMLSchema-instance" xsi:noNamespaceSchemaLocation="http://sumo.dlr.de/xsd/net_file.xsd">

    <location netOffset="0.00,0.00" convBoundary="-225.00,-225.00,300.00,125.00" origBoundary="-10000000000.00,-10000000000.00,10000000000.00,10000000000.00" projParameter="!"/>

    <edge id=":J0_0" function="internal">
        <lane id=":J0_0_0" index="0" disallow="pedestrian" speed="7.10" length="10.97" shape="5.20,101.60 2.23,101.17 0.10,99.90 -1.17,97.77 -1.60,94.80"/>
    </edge>
    <edge id=":J0_1" function="internal">
        <lane id=":J0_1_0" index="0" disallow="pedestrian" speed="5.37" length="5.81" shape="1.60,94.80 1.83,96.38 2.50,97.50 3.63,98.18 5.20,98.40"/>
    </edge>
    <edge id=":J0_c0" function="crossing" crossingEdges="E0 -E0">
        <lane id=":J0_c0_0" index="0" allow="pedestrian" speed="1.00" length="6.40" width="4.00" shape="3.20,96.80 3.20,103.20"/>
    </edge>
    <edge id=":J0_w0" function="walkingarea">
        <lane id=":J0_w0_0" index="0" allow="pedestrian" speed="1.00" length="8.91" width="4.00" shape="-3.20,94.80 -5.20,94.80 -4.94,98.12 -4.14,100.76 -2.76,102.76 -0.76,104.14 1.88,104.94 5.20,105.20 5.20,103.20 2.63,102.97 0.53,102.27 -1.10,101.10 -2.27,99.47 -2.97,97.37"/>
    </edge>
    <edge id=":J0_w1" function="walkingarea">
        <lane id=":J0_w1_0" index="0" allow="pedestrian" speed="1.00" length="1.96" width="4.00" shape="5.20,96.80 5.20,94.80 5.20,94.80 3.20,94.80 3.26,95.41 3.42,95.91 3.70,96.30 4.09,96.58 4.59,96.74"/>
    </edge>
    <edge id=":J1_0" function="internal">
        <lane id=":J1_0_0" index="0" disallow="pedestrian" speed="13.89" length="0.10" shape="12.50,101.60 12.50,101.60"/>
    </edge>
    <edge id=":J1_1" function="internal">
        <lane id=":J1_1_0" index="0" disallow="pedestrian" speed="13.89" length="0.10" shape="12.50,98.40 12.50,98.40"/>
    </edge>
    <edge id=":J1_w0" function="walkingarea">
        <lane id=":J1_w0_0" index="0" allow="pedestrian" speed="1.00" length="0.10" width="2.00" shape="12.50,103.20 12.50,105.20 12.50,105.20 12.50,103.20"/>
    </edge>
    <edge id=":J1_w1" function="walkingarea">
        <lane id=":J1_w1_0" index="0" allow="pedestrian" speed="1.00" length="0.10" width="2.00" shape="12.50,96.80 12.50,94.80 12.50,94.80 12.50,96.80"/>
    </edge>
    <edge id=":J10_0" function="internal">
        <lane id=":J10_0_0" index="0" disallow="pedestrian" speed="13.89" length="0.10" shape="48.40,-50.00 48.40,-50.00"/>
    </edge>
    <edge id=":J10_1" function="internal">
        <lane id=":J10_1_0" index="0" disallow="pedestrian" speed="13.89" length="0.10" shape="51.60,-50.00 51.60,-50.00"/>
    </edge>
    <edge id=":J10_w0" function="walkingarea">
        <lane id=":J10_w0_0" index="0" allow="pedestrian" speed="1.00" length="0.10" width="2.00" shape="46.80,-50.00 44.80,-50.00 44.80,-50.00 46.80,-50.00"/>
    </edge>
    <edge id=":J10_w1" function="walkingarea">
        <lane id=":J10_w1_0" index="0" allow="pedestrian" speed="1.00" length="0.10" width="2.00" shape="53.20,-50.00 55.20,-50.00 55.20,-50.00 53.20,-50.00"/>
    </edge>
    <edge id=":J100_0" function="internal">
        <lane id=":J100_0_0" index="0" disallow="pedestrian" speed="13.89" length="4.00" shape="-1.60,64.50 -1.60,60.50"/>
    </edge>
    <edge id=":J100_1" function="internal">
        <lane id=":J100_1_0" index="0" disallow="pedestrian" speed="13.89" length="4.00" shape="1.60,60.50 1.60,64.50"/>
    </edge>
    <edge id=":J100_c0" function="crossing" crossingEdges="-E98 E98">
        <lane id=":J100_c0_0" index="0" allow="pedestrian" speed="1.00" length="6.40" width="4.00" shape="-3.20,62.50 3.20,62.50"/>
    </edge>
    <edge id=":J100_w0" function="walkingarea">
        <lane id=":J100_w0_0" index="0" allow="pedestrian" speed="1.00" length="2.82" width="4.00" shape="-3.20,64.50 -3.20,60.50 -5.20,60.50 -5.20,64.50 -3.20,64.50"/>
    </edge>
    <edge id=":J100_w1" function="walkingarea">
        <lane id=":J100_w1_0" index="0" allow="pedestrian" speed="1.00" length="2.82" width="4.00" shape="3.20,64.50 5.20,64.50 5.20,60.50 3.20,60.50 3.20,64.50"/>
    </edge>
    <edge id=":J101_0" function="internal">
        <lane id=":J101_0_0" index="0" disallow="pedestrian" speed="13.89" length="4.00" shape="-1.60,77.00 -1.60,73.00"/>
    </edge>
    <edge id=":J101_1" function="internal">
        <lane id=":J101_1_0" index="0" disallow="pedestrian" speed="13.89" length="4.00" shape="1.60,73.00 1.60,77.00"/>
    </edge>
    <edge id=":J101_c0" function="crossing" crossingEdges="-E99 E99">
        <lane id=":J101_c0_0" index="0" allow="pedestrian" speed="1.00" length="6.40" width="4.00" shape="-3.20,75.00 3.20,75.00"/>
    </edge>
    <edge id=":J101_w0" function="walkingarea">
        <lane id=":J101_w0_0" index="0" allow="pedestrian" speed="1.00" length="2.82" width="4.00" shape="-3.20,77.00 -3.20,73.00 -5.20,73.00 -5.20,77.00 -3.20,77.00"/>
    </edge>
    <edge id=":J101_w1" function="walkingarea">
        <lane id=":J101_w1_0" index="0" allow="pedestrian" speed="1.00" length="2.82" width="4.00" shape="3.20,77.00 5.20,77.00 5.20,73.00 3.20,73.00 3.20,77.00"/>
    </edge>
    <edge id=":J102_0" function="internal">
        <lane id=":J102_0_0" index="0" disallow="pedestrian" speed="6.51" length="4.75" shape="-1.60,94.70 -1.95,92.25 -3.00,90.50 -3.20,90.38"/>
    </edge>
    <edge id=":J102_1" function="internal">
        <lane id=":J102_1_0" index="0" disallow="pedestrian" speed="13.89" length="14.40" shape="-1.60,94.70 -1.60,80.30"/>
    </edge>
    <edge id=":J102_6" function="internal">
        <lane id=":J102_6_0" index="0" disallow="pedestrian" speed="6.51" length="4.28" shape="-3.20,90.38 -4.75,89.45 -7.20,89.10"/>
    </edge>
    <edge id=":J102_2" function="internal">
        <lane id=":J102_2_0" index="0" disallow="pedestrian" speed="13.89" length="14.40" shape="1.60,80.30 1.60,94.70"/>
    </edge>
    <edge id=":J102_3" function="internal">
        <lane id=":J102_3_0" index="0" disallow="pedestrian" speed="8.00" length="4.07" shape="1.60,80.30 1.05,84.15 0.96,84.30"/>
    </edge>
    <edge id=":J102_7" function="internal">
        <lane id=":J102_7_0" index="0" disallow="pedestrian" speed="8.00" length="10.13" shape="0.96,84.30 -0.60,86.90 -3.35,88.55 -7.20,89.10"/>
    </edge>
    <edge id=":J102_4" function="internal">
        <lane id=":J102_4_0" index="0" disallow="pedestrian" speed="6.51" length="9.03" shape="-7.20,85.90 -4.75,85.55 -3.00,84.50 -1.95,82.75 -1.60,80.30"/>
    </edge>
    <edge id=":J102_5" function="internal">
        <lane id=":J102_5_0" index="0" disallow="pedestrian" speed="8.00" length="14.19" shape="-7.20,85.90 -3.35,86.45 -0.60,88.10 1.05,90.85 1.60,94.70"/>
    </edge>
    <edge id=":J102_c0" function="crossing" crossingEdges="-E100 E100">
        <lane id=":J102_c0_0" index="0" allow="pedestrian" speed="1.00" length="6.40" width="4.00" shape="-3.20,82.30 3.20,82.30"/>
    </edge>
    <edge id=":J102_c1" function="crossing" crossingEdges="-E582 E582">
        <lane id=":J102_c1_0" index="0" allow="pedestrian" speed="1.00" length="6.40" width="4.00" shape="-5.20,90.70 -5.20,84.30"/>
    </edge>
    <edge id=":J102_w0" function="walkingarea">
        <lane id=":J102_w0_0" index="0" allow="pedestrian" speed="1.00" length="3.53" width="4.00" shape="-7.20,90.70 -7.20,92.70 -5.20,94.70 -3.20,94.70 -3.31,93.48 -3.64,92.48 -4.20,91.70 -4.98,91.14 -5.98,90.81"/>
    </edge>
    <edge id=":J102_w1" function="walkingarea">
        <lane id=":J102_w1_0" index="0" allow="pedestrian" speed="1.00" length="9.69" width="4.00" shape="3.20,94.70 5.20,94.70 5.20,80.30 3.20,80.30 3.20,84.30"/>
    </edge>
    <edge id=":J102_w2" function="walkingarea">
        <lane id=":J102_w2_0" index="0" allow="pedestrian" speed="1.00" length="3.30" width="4.00" shape="-3.20,80.30 -5.20,80.30 -7.20,82.30 -7.20,84.30 -5.98,84.19 -4.98,83.86 -4.20,83.30 -3.64,82.52 -3.31,81.52"/>
    </edge>
    <edge id=":J103_0" function="internal">
        <lane id=":J103_0_0" index="0" disallow="pedestrian" speed="6.51" length="4.75" shape="23.40,-30.30 23.05,-32.75 22.00,-34.50 21.80,-34.62"/>
    </edge>
    <edge id=":J103_1" function="internal">
        <lane id=":J103_1_0" index="0" disallow="pedestrian" speed="13.89" length="14.40" shape="23.40,-30.30 23.40,-44.70"/>
    </edge>
    <edge id=":J103_2" function="internal">
        <lane id=":J103_2_0" index="0" disallow="pedestrian" speed="8.00" length="4.07" shape="23.40,-30.30 23.95,-34.15 24.04,-34.30"/>
    </edge>
    <edge id=":J103_12" function="internal">
        <lane id=":J103_12_0" index="0" disallow="pedestrian" speed="6.51" length="4.28" shape="21.80,-34.62 20.25,-35.55 17.80,-35.90"/>
    </edge>
    <edge id=":J103_13" function="internal">
        <lane id=":J103_13_0" index="0" disallow="pedestrian" speed="8.00" length="10.13" shape="24.04,-34.30 25.60,-36.90 28.35,-38.55 32.20,-39.10"/>
    </edge>
    <edge id=":J103_3" function="internal">
        <lane id=":J103_3_0" index="0" disallow="pedestrian" speed="6.51" length="9.03" shape="32.20,-35.90 29.75,-35.55 28.00,-34.50 26.95,-32.75 26.60,-30.30"/>
    </edge>
    <edge id=":J103_4" function="internal">
        <lane id=":J103_4_0" index="0" disallow="pedestrian" speed="13.89" length="14.40" shape="32.20,-35.90 17.80,-35.90"/>
    </edge>
    <edge id=":J103_5" function="internal">
        <lane id=":J103_5_0" index="0" disallow="pedestrian" speed="8.00" length="14.19" shape="32.20,-35.90 28.35,-36.45 25.60,-38.10 23.95,-40.85 23.40,-44.70"/>
    </edge>
    <edge id=":J103_6" function="internal">
        <lane id=":J103_6_0" index="0" disallow="pedestrian" speed="6.51" length="4.75" shape="26.60,-44.70 26.95,-42.25 28.00,-40.50 28.20,-40.38"/>
    </edge>
    <edge id=":J103_7" function="internal">
        <lane id=":J103_7_0" index="0" disallow="pedestrian" speed="13.89" length="14.40" shape="26.60,-44.70 26.60,-30.30"/>
    </edge>
    <edge id=":J103_8" function="internal">
        <lane id=":J103_8_0" index="0" disallow="pedestrian" speed="8.00" length="4.07" shape="26.60,-44.70 26.05,-40.85 25.96,-40.70"/>
    </edge>
    <edge id=":J103_14" function="internal">
        <lane id=":J103_14_0" index="0" disallow="pedestrian" speed="6.51" length="4.28" shape="28.20,-40.38 29.75,-39.45 32.20,-39.10"/>
    </edge>
    <edge id=":J103_15" function="internal">
        <lane id=":J103_15_0" index="0" disallow="pedestrian" speed="8.00" length="10.13" shape="25.96,-40.70 24.40,-38.10 21.65,-36.45 17.80,-35.90"/>
    </edge>
    <edge id=":J103_9" function="internal">
        <lane id=":J103_9_0" index="0" disallow="pedestrian" speed="6.51" length="9.03" shape="17.80,-39.10 20.25,-39.45 22.00,-40.50 23.05,-42.25 23.40,-44.70"/>
    </edge>
    <edge id=":J103_10" function="internal">
        <lane id=":J103_10_0" index="0" disallow="pedestrian" speed="13.89" length="14.40" shape="17.80,-39.10 32.20,-39.10"/>
    </edge>
    <edge id=":J103_11" function="internal">
        <lane id=":J103_11_0" index="0" disallow="pedestrian" speed="8.00" length="14.19" shape="17.80,-39.10 21.65,-38.55 24.40,-36.90 26.05,-34.15 26.60,-30.30"/>
    </edge>
    <edge id=":J103_c0" function="crossing" crossingEdges="E110 -E110">
        <lane id=":J103_c0_0" index="0" allow="pedestrian" speed="1.00" length="6.40" width="4.00" shape="28.20,-32.30 21.80,-32.30"/>
    </edge>
    <edge id=":J103_c1" function="crossing" crossingEdges="E4 -E4">
        <lane id=":J103_c1_0" index="0" allow="pedestrian" speed="1.00" length="6.40" width="4.00" shape="30.20,-40.70 30.20,-34.30"/>
    </edge>
    <edge id=":J103_c2" function="crossing" crossingEdges="-E130 E130">
        <lane id=":J103_c2_0" index="0" allow="pedestrian" speed="1.00" length="6.40" width="4.00" shape="21.80,-42.70 28.20,-42.70"/>
    </edge>
    <edge id=":J103_c3" function="crossing" crossingEdges="-E193 E193">
        <lane id=":J103_c3_0" index="0" allow="pedestrian" speed="1.00" length="6.40" width="4.00" shape="19.80,-34.30 19.80,-40.70"/>
    </edge>
    <edge id=":J103_w0" function="walkingarea">
        <lane id=":J103_w0_0" index="0" allow="pedestrian" speed="1.00" length="3.30" width="4.00" shape="17.80,-34.30 17.80,-32.30 19.80,-30.30 21.80,-30.30 21.69,-31.52 21.36,-32.52 20.80,-33.30 20.02,-33.86 19.02,-34.19"/>
    </edge>
    <edge id=":J103_w1" function="walkingarea">
        <lane id=":J103_w1_0" index="0" allow="pedestrian" speed="1.00" length="3.30" width="4.00" shape="28.20,-30.30 30.20,-30.30 32.20,-32.30 32.20,-34.30 30.98,-34.19 29.98,-33.86 29.20,-33.30 28.64,-32.52 28.31,-31.52"/>
    </edge>
    <edge id=":J103_w2" function="walkingarea">
        <lane id=":J103_w2_0" index="0" allow="pedestrian" speed="1.00" length="3.30" width="4.00" shape="32.20,-40.70 32.20,-42.70 30.20,-44.70 28.20,-44.70 28.31,-43.48 28.64,-42.48 29.20,-41.70 29.98,-41.14 30.98,-40.81"/>
    </edge>
    <edge id=":J103_w3" function="walkingarea">
        <lane id=":J103_w3_0" index="0" allow="pedestrian" speed="1.00" length="3.30" width="4.00" shape="21.80,-44.70 19.80,-44.70 17.80,-42.70 17.80,-40.70 19.02,-40.81 20.02,-41.14 20.80,-41.70 21.36,-42.48 21.69,-43.48"/>
    </edge>
    <edge id=":J104_0" function="internal">
        <lane id=":J104_0_0" index="0" disallow="pedestrian" speed="13.89" length="0.10" shape="23.40,-50.00 23.40,-50.00"/>
    </edge>
    <edge id=":J104_1" function="internal">
        <lane id=":J104_1_0" index="0" disallow="pedestrian" speed="13.89" length="0.10" shape="26.60,-50.00 26.60,-50.00"/>
    </edge>
    <edge id=":J104_w0" function="walkingarea">
        <lane id=":J104_w0_0" index="0" allow="pedestrian" speed="1.00" length="0.10" width="2.00" shape="21.80,-50.00 19.80,-50.00 19.80,-50.00 21.80,-50.00"/>
    </edge>
    <edge id=":J104_w1" function="walkingarea">
        <lane id=":J104_w1_0" index="0" allow="pedestrian" speed="1.00" length="0.10" width="2.00" shape="28.20,-50.00 30.20,-50.00 30.20,-50.00 28.20,-50.00"/>
    </edge>
    <edge id=":J107_0" function="internal">
        <lane id=":J107_0_0" index="0" disallow="pedestrian" speed="6.51" length="4.75" shape="48.40,-55.30 48.05,-57.75 47.00,-59.50 46.80,-59.62"/>
    </edge>
    <edge id=":J107_1" function="internal">
        <lane id=":J107_1_0" index="0" disallow="pedestrian" speed="13.89" length="14.40" shape="48.40,-55.30 48.40,-69.70"/>
    </edge>
    <edge id=":J107_2" function="internal">
        <lane id=":J107_2_0" index="0" disallow="pedestrian" speed="8.00" length="4.07" shape="48.40,-55.30 48.95,-59.15 49.04,-59.30"/>
    </edge>
    <edge id=":J107_12" function="internal">
        <lane id=":J107_12_0" index="0" disallow="pedestrian" speed="6.51" length="4.28" shape="46.80,-59.62 45.25,-60.55 42.80,-60.90"/>
    </edge>
    <edge id=":J107_13" function="internal">
        <lane id=":J107_13_0" index="0" disallow="pedestrian" speed="8.00" length="10.13" shape="49.04,-59.30 50.60,-61.90 53.35,-63.55 57.20,-64.10"/>
    </edge>
    <edge id=":J107_3" function="internal">
        <lane id=":J107_3_0" index="0" disallow="pedestrian" speed="6.51" length="9.03" shape="57.20,-60.90 54.75,-60.55 53.00,-59.50 51.95,-57.75 51.60,-55.30"/>
    </edge>
    <edge id=":J107_4" function="internal">
        <lane id=":J107_4_0" index="0" disallow="pedestrian" speed="13.89" length="14.40" shape="57.20,-60.90 42.80,-60.90"/>
    </edge>
    <edge id=":J107_5" function="internal">
        <lane id=":J107_5_0" index="0" disallow="pedestrian" speed="8.00" length="14.19" shape="57.20,-60.90 53.35,-61.45 50.60,-63.10 48.95,-65.85 48.40,-69.70"/>
    </edge>
    <edge id=":J107_6" function="internal">
        <lane id=":J107_6_0" index="0" disallow="pedestrian" speed="6.51" length="4.75" shape="51.60,-69.70 51.95,-67.25 53.00,-65.50 53.20,-65.38"/>
    </edge>
    <edge id=":J107_7" function="internal">
        <lane id=":J107_7_0" index="0" disallow="pedestrian" speed="13.89" length="14.40" shape="51.60,-69.70 51.60,-55.30"/>
    </edge>
    <edge id=":J107_8" function="internal">
        <lane id=":J107_8_0" index="0" disallow="pedestrian" speed="8.00" length="4.07" shape="51.60,-69.70 51.05,-65.85 50.96,-65.70"/>
    </edge>
    <edge id=":J107_14" function="internal">
        <lane id=":J107_14_0" index="0" disallow="pedestrian" speed="6.51" length="4.28" shape="53.20,-65.38 54.75,-64.45 57.20,-64.10"/>
    </edge>
    <edge id=":J107_15" function="internal">
        <lane id=":J107_15_0" index="0" disallow="pedestrian" speed="8.00" length="10.13" shape="50.96,-65.70 49.40,-63.10 46.65,-61.45 42.80,-60.90"/>
    </edge>
    <edge id=":J107_9" function="internal">
        <lane id=":J107_9_0" index="0" disallow="pedestrian" speed="6.51" length="9.03" shape="42.80,-64.10 45.25,-64.45 47.00,-65.50 48.05,-67.25 48.40,-69.70"/>
    </edge>
    <edge id=":J107_10" function="internal">
        <lane id=":J107_10_0" index="0" disallow="pedestrian" speed="13.89" length="14.40" shape="42.80,-64.10 57.20,-64.10"/>
    </edge>
    <edge id=":J107_11" function="internal">
        <lane id=":J107_11_0" index="0" disallow="pedestrian" speed="8.00" length="14.19" shape="42.80,-64.10 46.65,-63.55 49.40,-61.90 51.05,-59.15 51.60,-55.30"/>
    </edge>
    <edge id=":J107_c0" function="crossing" crossingEdges="-E107 E107">
        <lane id=":J107_c0_0" index="0" allow="pedestrian" speed="1.00" length="6.40" width="4.00" shape="53.20,-57.30 46.80,-57.30"/>
    </edge>
    <edge id=":J107_c1" function="crossing" crossingEdges="-E149 E149">
        <lane id=":J107_c1_0" index="0" allow="pedestrian" speed="1.00" length="6.40" width="4.00" shape="55.20,-65.70 55.20,-59.30"/>
    </edge>
    <edge id=":J107_c2" function="crossing" crossingEdges="E150 -E150">
        <lane id=":J107_c2_0" index="0" allow="pedestrian" speed="1.00" length="6.40" width="4.00" shape="46.80,-67.70 53.20,-67.70"/>
    </edge>
    <edge id=":J107_c3" function="crossing" crossingEdges="E108 -E108">
        <lane id=":J107_c3_0" index="0" allow="pedestrian" speed="1.00" length="6.40" width="4.00" shape="44.80,-59.30 44.80,-65.70"/>
    </edge>
    <edge id=":J107_w0" function="walkingarea">
        <lane id=":J107_w0_0" index="0" allow="pedestrian" speed="1.00" length="3.30" width="4.00" shape="42.80,-59.30 42.80,-57.30 44.80,-55.30 46.80,-55.30 46.69,-56.52 46.36,-57.52 45.80,-58.30 45.02,-58.86 44.02,-59.19"/>
    </edge>
    <edge id=":J107_w1" function="walkingarea">
        <lane id=":J107_w1_0" index="0" allow="pedestrian" speed="1.00" length="3.30" width="4.00" shape="53.20,-55.30 55.20,-55.30 57.20,-57.30 57.20,-59.30 55.98,-59.19 54.98,-58.86 54.20,-58.30 53.64,-57.52 53.31,-56.52"/>
    </edge>
    <edge id=":J107_w2" function="walkingarea">
        <lane id=":J107_w2_0" index="0" allow="pedestrian" speed="1.00" length="3.30" width="4.00" shape="57.20,-65.70 57.20,-67.70 55.20,-69.70 53.20,-69.70 53.31,-68.48 53.64,-67.48 54.20,-66.70 54.98,-66.14 55.98,-65.81"/>
    </edge>
    <edge id=":J107_w3" function="walkingarea">
        <lane id=":J107_w3_0" index="0" allow="pedestrian" speed="1.00" length="3.30" width="4.00" shape="46.80,-69.70 44.80,-69.70 42.80,-67.70 42.80,-65.70 44.02,-65.81 45.02,-66.14 45.80,-66.70 46.36,-67.48 46.69,-68.48"/>
    </edge>
    <edge id=":J109_0" function="internal">
        <lane id=":J109_0_0" index="0" disallow="pedestrian" speed="6.51" length="4.75" shape="23.40,-55.30 23.05,-57.75 22.00,-59.50 21.80,-59.62"/>
    </edge>
    <edge id=":J109_1" function="internal">
        <lane id=":J109_1_0" index="0" disallow="pedestrian" speed="13.89" length="14.40" shape="23.40,-55.30 23.40,-69.70"/>
    </edge>
    <edge id=":J109_2" function="internal">
        <lane id=":J109_2_0" index="0" disallow="pedestrian" speed="8.00" length="4.07" shape="23.40,-55.30 23.95,-59.15 24.04,-59.30"/>
    </edge>
    <edge id=":J109_12" function="internal">
        <lane id=":J109_12_0" index="0" disallow="pedestrian" speed="6.51" length="4.28" shape="21.80,-59.62 20.25,-60.55 17.80,-60.90"/>
    </edge>
    <edge id=":J109_13" function="internal">
        <lane id=":J109_13_0" index="0" disallow="pedestrian" speed="8.00" length="10.13" shape="24.04,-59.30 25.60,-61.90 28.35,-63.55 32.20,-64.10"/>
    </edge>
    <edge id=":J109_3" function="internal">
        <lane id=":J109_3_0" index="0" disallow="pedestrian" speed="6.51" length="9.03" shape="32.20,-60.90 29.75,-60.55 28.00,-59.50 26.95,-57.75 26.60,-55.30"/>
    </edge>
    <edge id=":J109_4" function="internal">
        <lane id=":J109_4_0" index="0" disallow="pedestrian" speed="13.89" length="14.40" shape="32.20,-60.90 17.80,-60.90"/>
    </edge>
    <edge id=":J109_5" function="internal">
        <lane id=":J109_5_0" index="0" disallow="pedestrian" speed="8.00" length="14.19" shape="32.20,-60.90 28.35,-61.45 25.60,-63.10 23.95,-65.85 23.40,-69.70"/>
    </edge>
    <edge id=":J109_6" function="internal">
        <lane id=":J109_6_0" index="0" disallow="pedestrian" speed="6.51" length="4.75" shape="26.60,-69.70 26.95,-67.25 28.00,-65.50 28.20,-65.38"/>
    </edge>
    <edge id=":J109_7" function="internal">
        <lane id=":J109_7_0" index="0" disallow="pedestrian" speed="13.89" length="14.40" shape="26.60,-69.70 26.60,-55.30"/>
    </edge>
    <edge id=":J109_8" function="internal">
        <lane id=":J109_8_0" index="0" disallow="pedestrian" speed="8.00" length="4.07" shape="26.60,-69.70 26.05,-65.85 25.96,-65.70"/>
    </edge>
    <edge id=":J109_14" function="internal">
        <lane id=":J109_14_0" index="0" disallow="pedestrian" speed="6.51" length="4.28" shape="28.20,-65.38 29.75,-64.45 32.20,-64.10"/>
    </edge>
    <edge id=":J109_15" function="internal">
        <lane id=":J109_15_0" index="0" disallow="pedestrian" speed="8.00" length="10.13" shape="25.96,-65.70 24.40,-63.10 21.65,-61.45 17.80,-60.90"/>
    </edge>
    <edge id=":J109_9" function="internal">
        <lane id=":J109_9_0" index="0" disallow="pedestrian" speed="6.51" length="9.03" shape="17.80,-64.10 20.25,-64.45 22.00,-65.50 23.05,-67.25 23.40,-69.70"/>
    </edge>
    <edge id=":J109_10" function="internal">
        <lane id=":J109_10_0" index="0" disallow="pedestrian" speed="13.89" length="14.40" shape="17.80,-64.10 32.20,-64.10"/>
    </edge>
    <edge id=":J109_11" function="internal">
        <lane id=":J109_11_0" index="0" disallow="pedestrian" speed="8.00" length="14.19" shape="17.80,-64.10 21.65,-63.55 24.40,-61.90 26.05,-59.15 26.60,-55.30"/>
    </edge>
    <edge id=":J109_c0" function="crossing" crossingEdges="E129 -E129">
        <lane id=":J109_c0_0" index="0" allow="pedestrian" speed="1.00" length="6.40" width="4.00" shape="28.20,-57.30 21.80,-57.30"/>
    </edge>
    <edge id=":J109_c1" function="crossing" crossingEdges="-E109 E109">
        <lane id=":J109_c1_0" index="0" allow="pedestrian" speed="1.00" length="6.40" width="4.00" shape="30.20,-65.70 30.20,-59.30"/>
    </edge>
    <edge id=":J109_c2" function="crossing" crossingEdges="-E171 E171">
        <lane id=":J109_c2_0" index="0" allow="pedestrian" speed="1.00" length="6.40" width="4.00" shape="21.80,-67.70 28.20,-67.70"/>
    </edge>
    <edge id=":J109_c3" function="crossing" crossingEdges="E172 -E172">
        <lane id=":J109_c3_0" index="0" allow="pedestrian" speed="1.00" length="6.40" width="4.00" shape="19.80,-59.30 19.80,-65.70"/>
    </edge>
    <edge id=":J109_w0" function="walkingarea">
        <lane id=":J109_w0_0" index="0" allow="pedestrian" speed="1.00" length="3.30" width="4.00" shape="17.80,-59.30 17.80,-57.30 19.80,-55.30 21.80,-55.30 21.69,-56.52 21.36,-57.52 20.80,-58.30 20.02,-58.86 19.02,-59.19"/>
    </edge>
    <edge id=":J109_w1" function="walkingarea">
        <lane id=":J109_w1_0" index="0" allow="pedestrian" speed="1.00" length="3.30" width="4.00" shape="28.20,-55.30 30.20,-55.30 32.20,-57.30 32.20,-59.30 30.98,-59.19 29.98,-58.86 29.20,-58.30 28.64,-57.52 28.31,-56.52"/>
    </edge>
    <edge id=":J109_w2" function="walkingarea">
        <lane id=":J109_w2_0" index="0" allow="pedestrian" speed="1.00" length="3.30" width="4.00" shape="32.20,-65.70 32.20,-67.70 30.20,-69.70 28.20,-69.70 28.31,-68.48 28.64,-67.48 29.20,-66.70 29.98,-66.14 30.98,-65.81"/>
    </edge>
    <edge id=":J109_w3" function="walkingarea">
        <lane id=":J109_w3_0" index="0" allow="pedestrian" speed="1.00" length="3.30" width="4.00" shape="21.80,-69.70 19.80,-69.70 17.80,-67.70 17.80,-65.70 19.02,-65.81 20.02,-66.14 20.80,-66.70 21.36,-67.48 21.69,-68.48"/>
    </edge>
    <edge id=":J11_0" function="internal">
        <lane id=":J11_0_0" index="0" disallow="pedestrian" speed="13.89" length="0.10" shape="62.50,101.60 62.50,101.60"/>
    </edge>
    <edge id=":J11_1" function="internal">
        <lane id=":J11_1_0" index="0" disallow="pedestrian" speed="13.89" length="0.10" shape="62.50,98.40 62.50,98.40"/>
    </edge>
    <edge id=":J11_w0" function="walkingarea">
        <lane id=":J11_w0_0" index="0" allow="pedestrian" speed="1.00" length="0.10" width="2.00" shape="62.50,103.20 62.50,105.20 62.50,105.20 62.50,103.20"/>
    </edge>
    <edge id=":J11_w1" function="walkingarea">
        <lane id=":J11_w1_0" index="0" allow="pedestrian" speed="1.00" length="0.10" width="2.00" shape="62.50,96.80 62.50,94.80 62.50,94.80 62.50,96.80"/>
    </edge>
    <edge id=":J111_0" function="internal">
        <lane id=":J111_0_0" index="0" disallow="pedestrian" speed="13.89" length="4.00" shape="23.40,-23.00 23.40,-27.00"/>
    </edge>
    <edge id=":J111_1" function="internal">
        <lane id=":J111_1_0" index="0" disallow="pedestrian" speed="13.89" length="4.00" shape="26.60,-27.00 26.60,-23.00"/>
    </edge>
    <edge id=":J111_c0" function="crossing" crossingEdges="-E110 E110">
        <lane id=":J111_c0_0" index="0" allow="pedestrian" speed="1.00" length="6.40" width="4.00" shape="21.80,-25.00 28.20,-25.00"/>
    </edge>
    <edge id=":J111_w0" function="walkingarea">
        <lane id=":J111_w0_0" index="0" allow="pedestrian" speed="1.00" length="2.82" width="4.00" shape="21.80,-23.00 21.80,-27.00 19.80,-27.00 19.80,-23.00 21.80,-23.00"/>
    </edge>
    <edge id=":J111_w1" function="walkingarea">
        <lane id=":J111_w1_0" index="0" allow="pedestrian" speed="1.00" length="2.82" width="4.00" shape="28.20,-23.00 30.20,-23.00 30.20,-27.00 28.20,-27.00 28.20,-23.00"/>
    </edge>
    <edge id=":J112_0" function="internal">
        <lane id=":J112_0_0" index="0" disallow="pedestrian" speed="13.89" length="4.00" shape="23.40,-10.50 23.40,-14.50"/>
    </edge>
    <edge id=":J112_1" function="internal">
        <lane id=":J112_1_0" index="0" disallow="pedestrian" speed="13.89" length="4.00" shape="26.60,-14.50 26.60,-10.50"/>
    </edge>
    <edge id=":J112_c0" function="crossing" crossingEdges="-E111 E111">
        <lane id=":J112_c0_0" index="0" allow="pedestrian" speed="1.00" length="6.40" width="4.00" shape="21.80,-12.50 28.20,-12.50"/>
    </edge>
    <edge id=":J112_w0" function="walkingarea">
        <lane id=":J112_w0_0" index="0" allow="pedestrian" speed="1.00" length="2.82" width="4.00" shape="21.80,-10.50 21.80,-14.50 19.80,-14.50 19.80,-10.50 21.80,-10.50"/>
    </edge>
    <edge id=":J112_w1" function="walkingarea">
        <lane id=":J112_w1_0" index="0" allow="pedestrian" speed="1.00" length="2.82" width="4.00" shape="28.20,-10.50 30.20,-10.50 30.20,-14.50 28.20,-14.50 28.20,-10.50"/>
    </edge>
    <edge id=":J113_0" function="internal">
        <lane id=":J113_0_0" index="0" disallow="pedestrian" speed="6.51" length="4.75" shape="23.40,7.20 23.05,4.75 22.00,3.00 21.80,2.88"/>
    </edge>
    <edge id=":J113_1" function="internal">
        <lane id=":J113_1_0" index="0" disallow="pedestrian" speed="13.89" length="14.40" shape="23.40,7.20 23.40,-7.20"/>
    </edge>
    <edge id=":J113_6" function="internal">
        <lane id=":J113_6_0" index="0" disallow="pedestrian" speed="6.51" length="4.28" shape="21.80,2.88 20.25,1.95 17.80,1.60"/>
    </edge>
    <edge id=":J113_2" function="internal">
        <lane id=":J113_2_0" index="0" disallow="pedestrian" speed="13.89" length="14.40" shape="26.60,-7.20 26.60,7.20"/>
    </edge>
    <edge id=":J113_3" function="internal">
        <lane id=":J113_3_0" index="0" disallow="pedestrian" speed="8.00" length="4.07" shape="26.60,-7.20 26.05,-3.35 25.96,-3.20"/>
    </edge>