<routes>
  <vType id="agv" type="e-scooter" length="1.1" width="0.4" accel="10" decel="10" sigma="0"/>
  <vType id="pedestrian" vClass="pedestrian"/>
  <route id="route_0" edges="E0 E1 E2 E3 E4 E5 -E167 -E166 -E165 -E164 -E163 -E162 -E161 -E160 -E159 -E158 -E157 -E156 -E155 -E154 -E153 E95 E96 E97 E98 E99 E100 E101 E102 E103 E104 E105 E106 E107 E108 E109 -E215 -E214 -E213 -E212 -E211 -E210 -E209 -E208 -E207 -E206 -E205 -E204 -E203 -E202 E83 E84 E85 E86 E90 E91 E92"/>
  <route id="route_1" edges="E226 E227 E228 E229 E2 E3 E4 E5 -E167 -E166 -E165 -E164 -E163 -E162 -E161 -E160 -E159 -E158 -E157 -E156 -E155 -E154 -E153 E95 E96 E97 E98 E99 E100 E101 E102 E103 E104 E105 E106 E107 E108 E109 -E215 -E214 -E213 -E212 -E211 -E210 -E209 -E221 -E220 E119 E120 E121 E122 E123 E216 E217 -E203 -E202 E83 E84 E85 E86 E90 E91 E92"/>
  <route id="route_2" edges="-E92 -E91 -E90 -E86 -E85 -E84 -E83 -E82 -E81 -E125 -E124 -E123 -E122 -E121 -E120 -E119 -E118 -E117 -E116 -E115 -E114 -E113 -E112 E131 E132 E138 E139 E140 E141 E142 E143 E144 E145 E146 E147 E148 E149 E150 -E22 -E21 -E20 -E19 -E18 -E17 -E16 -E15 -E14 -E13 -E12 -E11 -E10 E180 E181 E166 E167 -E5 -E4 -E3 -E2 -E1 -E0"/>
  <route id="route_3" edges="E0 E1 -E229 -E228 E230 E231 E232 E233 E234 E235 -E378 -E377 -E376 -E375 -E374 -E373 -E372 -E371 -E370 -E369 -E368 -E367 -E366 -E365 -E364 E318 E319 E320 E321 E322 E323 -E421 -E420 E358 E359 -E419 -E418 E322 E323 E324 E325 E326 E327 E328 E329 E330 E331 E332 -E392 -E391 -E390 -E389 -E388 -E387 -E386 -E385 -E384 -E383 -E382 -E381 -E380 -E379 E290 E291 E292 E293 E294 E295 E296 E297 E298"/>
  <route id="route_4" edges="E226 E227 E230 E231 E232 E233 E301 E302 E303 E304 E305 E306 E307 E308 E309 E310 E311 E312 E313 E403 E404 -E365 -E364 E318 E319 E320 E321 E322 E323 E324 E325 E326 E327 E328 E329 E330 E331 E332 -E392 -E391 -E390 -E389 -E388 -E387 -E386 -E385 -E384 -E383 -E382 -E381 -E380 -E379 E290 E291 E292 E293 E294 E295 E296 E297 E298"/>
  <route id="route_5" edges="E0 E1 E2 E3 E4 E5 -E167 -E166 -E165 -E164 -E163 -E162 -E161 -E160 -E159 -E158 -E157 -E156 -E155 -E154 -E153 E95 E96 E97 E98 E99 E100 E101 E102 E103 E104 E105 E106 E107 E108 E109 -E215 -E214 -E213 -E212 -E211 -E210 -E209 -E208 -E207 -E206 -E205 -E204 -E217 -E216 E124 E125 E81 E82 E83 E84 E85 E86 E90 E91 E92"/>
  <route id="route_6" edges="E226 E227 E228 E229 E2 E3 E4 E5 -E167 -E166 -E165 -E164 -E163 -E162 -E161 -E160 -E159 -E158 -E157 -E156 -E155 -E154 -E153 E95 E96 E97 E98 E99 E100 E101 E102 E103 E104 E105 E106 E107 E108 E109 -E215 -E214 -E213 -E212 -E211 -E210 -E209 -E221 -E220 E119 E120 E121 E122 E123 E124 E125 E81 E82 E202 E203 -E217 -E216 E124 E125 E81 E82 E83 E84 E85 E86 -E300 -E299 E296 E297 E298"/>
  <route id="route_7" edges="E0 E1 E2 E3 E4 E5 -E167 -E166 -E165 -E164 -E163 -E162 -E161 -E160 -E159 -E158 -E157 -E156 -E155 -E154 -E153 E95 E96 E97 E98 E99 E100 E101 E102 E103 E104 E105 E106 E107 E108 E109 -E215 -E214 -E213 -E212 -E211 -E210 -E209 -E208 -E207 -E206 -E205 -E204 -E203 -E202 E83 E84 E85 E86 -E300 -E299 E296 E297 E298"/>
  <route id="route_8" edges="-E92 -E91 -E90 -E86 -E85 -E84 -E83 E202 E203 E204 E205 E206 E207 E208 E209 E210 E211 E212 E213 E214 E215 -E109 -E108 -E107 -E106 -E105 -E104 -E103 -E102 -E101 -E100 -E99 -E98 -E97 -E96 -E95 E153 E154 E155 E156 E157 E158 E159 E160 E161 E162 E163 E164 E165 E166 E167 -E5 -E4 -E3 -E2 -E229 -E228 -E227 -E226"/>
  <route id="route_9" edges="E0 E1 -E229 -E228 E230 E231 E232 E233 E234 E235 -E378 -E377 -E376 -E375 -E374 -E373 -E372 -E371 -E370 -E369 -E368 -E367 -E366 -E365 -E364 E318 E319 E320 E321 E322 E323 E324 E325 E326 E327 E328 E329 E330 E331 E332 -E392 -E391 -E390 -E389 -E388 -E387 -E386 -E385 -E384 -E383 -E382 -E381 -E380 -E379 E290 E291 E292 E293 E294 E295 E299 E300 E90 E91 E92"/>
  <route id="route_10" edges="-E298 -E297 -E296 -E295 -E294 -E293 -E292 -E348 -E347 -E346 -E345 -E344 -E343 -E342 -E341 -E340 -E339 -E338 -E337 -E336 -E335 E349 E350 E351 E352 E353 E354 E355 E356 E357 E358 E359 E360 E361 E362 E363 -E315 -E314 -E313 -E312 -E311 -E310 -E309 -E308 -E307 -E306 -E305 E395 E396 E375 E376 E377 E378 -E235 -E234 -E233 -E232 -E231 -E230 -E227 -E226"/>
  <route id="route_11" edges="-E298 -E297 -E296 -E295 -E294 -E293 -E292 -E348 -E347 -E346 -E345 -E344 -E343 -E342 -E341 -E340 -E339 -E338 -E337 -E336 -E335 E349 E350 E351 E352 E353 E354 E355 E356 E357 E358 E359 E360 E361 E362 E363 -E315 -E314 -E313 -E312 -E311 -E310 -E309 -E308 -E307 -E306 -E305 E395 E396 E375 E376 E393 E394 -E302 -E301 -E233 -E232 -E231 -E230 E228 E229 -E1 -E0"/>
  <route id="route_12" edges="-E298 -E297 -E296 E299 E300 -E86 -E85 -E84 -E83 E202 E203 E204 E205 E206 E207 E208 E209 E210 E211 E212 E213 E214 E215 -E109 -E108 -E107 -E106 -E105 -E104 -E103 -E102 -E101 -E100 -E99 -E98 -E97 -E96 -E95 E153 E154 E155 E156 E157 E158 E159 E160 E161 E162 E163 E164 E165 E166 E167 -E5 -E4 -E3 -E2 -E1 -E0"/>
  <route id="route_13" edges="E226 E227 E228 E229 E2 E3 E4 E5 -E167 -E166 -E165 -E164 -E163 -E162 -E185 -E184 E14 E15 E16 E17 E18 E19 E20 E21 E22 E168 E169 E170 E171 E172 E43 E44 E45 E46 E47 E48 E49 E50 E51 E52 E53 E54 E55 E56 E57 E58 E59 E60 E61 E62 E63 E64 E65 E66 E67 E68 E69 E70 E71 E76 E77 E78 E79 E80 E81 E82 E83 E84 E85 E86 -E300 -E299 E296 E297 E298"/>
  <route id="route_14" edges="E0 E1 -E229 -E228 E230 E231 E232 E233 E301 E302 E303 E304 E305 E306 E307 E308 E309 E310 E311 E312 E313 E314 E315 -E363 -E362 -E361 -E360 -E359 -E358 E420 E421 E324 E325 E326 E327 E328 E329 E330 E331 E332 -E392 -E391 -E390 -E389 -E388 -E387 -E386 -E385 -E384 -E383 -E382 -E381 -E380 -E379 E290 E291 E292 E293 E294 E295 E299 E300 E90 E91 E92"/>
  <flow id="flow0" type="agv" route="route_0" begin="0" period="60" minGap="1.10" maxSpeed="4.00" number="1"/>
  <personFlow type="pedestrian" begin="0" end="720" id="p10a" impatience="0.04" period="4">
    <walk from="E10" to="-E10"/>
  </personFlow>
  <personFlow begin="0" id="p10b" impatience="0.96" end="512" period="4">
    <walk from="-E10" to="E10"/>
  </personFlow>
  <personFlow begin="0" id="p101a" impatience="0.38" end="399" period="6">
    <walk from="E101" to="-E101"/>
  </personFlow>
  <personFlow begin="0" id="p101b" impatience="0.62" end="512" period="4">
    <walk from="-E101" to="E101"/>
  </personFlow>
    <personFlow begin="0" id="p101x" impatience="0.38" end="399" period="6">
    <walk from="E101" to="-E101"/>
  </personFlow>
  <personFlow begin="0" id="p101y" impatience="0.62" end="512" period="4">
    <walk from="-E101" to="E101"/>
  </personFlow>
  <personFlow begin="0" id="p102a" impatience="0.38" end="512" period="4">
    <walk from="E102" to="-E102"/>
  </personFlow>
  <personFlow begin="0" id="p102b" impatience="0.62" end="512" period="4">
    <walk from="-E102" to="E102"/>
  </personFlow>
  <personFlow begin="0" id="p103a" impatience="0.39" end="512" period="4">
    <walk from="E103" to="-E103"/>
  </personFlow>
  <personFlow begin="0" id="p103b" impatience="0.61" end="512" period="4">
    <walk from="-E103" to="E103"/>
  </personFlow>
  <personFlow begin="0" id="p104a" impatience="0.39" end="512" period="4">
    <walk from="E104" to="-E104"/>
  </personFlow>
  <personFlow begin="0" id="p104b" impatience="0.61" end="512" period="4">
    <walk from="-E104" to="E104"/>
  </personFlow>
  <personFlow begin="0" id="p105a" impatience="0.39" end="512" period="4">
    <walk from="E105" to="-E105"/>
  </personFlow>
  <personFlow begin="0" id="p105b" impatience="0.61" end="512" period="4">
    <walk from="-E105" to="E105"/>
  </personFlow>
  <personFlow begin="0" id="p106a" impatience="0.40" end="512" period="4">
    <walk from="E106" to="-E106"/>
  </personFlow>
  <personFlow begin="0" id="p106b" impatience="0.60" end="512" period="4">
    <walk from="-E106" to="E106"/>
  </personFlow>
  <personFlow begin="0" id="p109a" impatience="0.41" end="512" period="4">
    <walk from="E109" to="-E109"/>
  </personFlow>
  <personFlow begin="0" id="p109b" impatience="0.59" end="512" period="4">
    <walk from="-E109" to="E109"/>
  </personFlow>
  <personFlow begin="0" id="p11a" impatience="0.04" end="512" period="4">
    <walk from="E11" to="-E11"/>
  </personFlow>
  <personFlow begin="0" id="p11b" impatience="0.96" end="512" period="4">
    <walk from="-E11" to="E11"/>
  </personFlow>
  <personFlow begin="0" id="p115a" impatience="0.43" end="512" period="4">
    <walk from="E115" to="-E115"/>
  </personFlow>
  <personFlow begin="0" id="p115b" impatience="0.57" end="512" period="4">
    <walk from="-E115" to="E115"/>
  </personFlow>
  <personFlow begin="0" id="p116a" impatience="0.44" end="512" period="4">
    <walk from="E116" to="-E116"/>
  </personFlow>
  <personFlow begin="0" id="p116b" impatience="0.56" end="512" period="4">
    <walk from="-E116" to="E116"/>
  </personFlow>
  <personFlow begin="0" id="p117a" impatience="0.44" end="512" period="4">
    <walk from="E117" to="-E117"/>
  </personFlow>
  <personFlow begin="0" id="p117b" impatience="0.56" end="1501" period="10">
    <walk from="-E117" to="E117"/>
  </personFlow>
  <personFlow begin="0" id="p12a" impatience="0.05" end="512" period="4">
    <walk from="E12" to="-E12"/>
  </personFlow>
  <personFlow begin="0" id="p12b" impatience="0.95" end="512" period="4">
    <walk from="-E12" to="E12"/>
  </personFlow>
  <personFlow begin="0" id="p121a" impatience="0.45" end="512" period="4">
    <walk from="E121" to="-E121"/>
  </personFlow>
  <personFlow begin="0" id="p121b" impatience="0.55" end="512" period="4">
    <walk from="-E121" to="E121"/>
  </personFlow>
  <personFlow begin="0" id="p124a" impatience="0.47" end="1501" period="10">
    <walk from="E124" to="-E124"/>
  </personFlow>
  <personFlow begin="0" id="p124b" impatience="0.53" end="512" period="4">
    <walk from="-E124" to="E124"/>
  </personFlow>
  <!--personFlow begin="0" id="p85a" impatience="0.32" end="512" period="4">
    <walk from="E85" to="-E85"/>
  </personFlow>
  <personFlow begin="0" id="p85b" impatience="0.68" end="512" period="4">
    <walk from="-E85" to="E85"/>
  </personFlow>
  <personFlow begin="0" id="p86a" impatience="0.32" end="512" period="4">
    <walk from="E86" to="-E86"/>
  </personFlow>
  <personFlow begin="0" id="p86b" impatience="0.68" end="1501" period="10">
    <walk from="-E86" to="E86"/>
  </personFlow-->
  <personFlow begin="0" id="p93a" impatience="0.45" end="512" period="4">
    <walk from="E93" to="-E93"/>
  </personFlow>
  <personFlow begin="0" id="p93b" impatience="0.25" end="512" period="4">
    <walk from="-E93" to="E93"/>
  </personFlow>
  <personFlow begin="0" id="p94a" impatience="0.35" end="512" period="4">
    <walk from="E94" to="-E94"/>
  </personFlow>
  <personFlow begin="0" id="p94b" impatience="0.65" end="512" period="4">
    <walk from="-E94" to="E94"/>
  </personFlow>
  <personFlow begin="0" id="p95a" impatience="0.55" end="512" period="4">
    <walk from="E95" to="-E95"/>
  </personFlow>
  <personFlow begin="0" id="p95b" impatience="0.35" end="512" period="4">
    <walk from="-E95" to="E95"/>
  </personFlow>
  <personFlow begin="0" id="p96a" impatience="0.46" end="512" period="4">
    <walk from="E96" to="-E96"/>
  </personFlow>
  <personFlow begin="0" id="p96b" impatience="0.64" end="512" period="4">
    <walk from="-E96" to="E96"/>
  </personFlow>
  <personFlow begin="0" id="p97a" impatience="0.56" end="482" period="5">
    <walk from="E97" to="-E97"/>
  </personFlow>
  <personFlow begin="0" id="p97b" impatience="0.64" end="512" period="4">
    <walk from="-E97" to="E97"/>
  </personFlow>
  <personFlow begin="0" id="p98a" impatience="0.37" end="512" period="4">
    <walk from="E98" to="-E98"/>
  </personFlow>
  <personFlow begin="0" id="p98b" impatience="0.63" end="512" period="4">
    <walk from="-E98" to="E98"/>
  </personFlow>
  <personFlow begin="0" id="p99a" impatience="0.75" end="512" period="4">
    <walk from="E99" to="-E99"/>
  </personFlow>
  <personFlow begin="0" id="p99b" impatience="0.45" end="512" period="4">
    <walk from="-E99" to="E99"/>
  </personFlow>
  <personFlow begin="0" id="p100a" impatience="0.51" end="482" period="5">
    <walk from="E100" to="-E100"/>
  </personFlow>
  <personFlow begin="0" id="p100b" impatience="0.51" end="512" period="4">
    <walk from="-E100" to="E100"/>
  </personFlow>
    <personFlow begin="0" id="p100c" impatience="0.51" end="482" period="5">
    <walk from="E100" to="-E100"/>
  </personFlow>
  <personFlow begin="0" id="p100d" impatience="0.51" end="512" period="4">
    <walk from="-E100" to="E100"/>
  </personFlow>

<!--personFlow begin="0" id="p105a" impatience="0.15" end="482" period="5">
    <walk from="E105" to="-E105"/>
  </personFlow>
  <personFlow begin="0" id="p105b" impatience="0.51" end="512" period="4">
    <walk from="-E105" to="E105"/>
  </personFlow-->
  <!--personFlow begin="0" id="p106a" impatience="0.65" end="399" period="6">
    <walk from="E106" to="-E106"/>
  </personFlow>
  <personFlow begin="0" id="p106b" impatience="0.16" end="512" period="4">
    <walk from="-E106" to="E106"/>
  </personFlow-->
  <personFlow begin="0" id="p107a" impatience="0.68" end="512" period="4">
    <walk from="E107" to="-E107"/>
  </personFlow>
  <personFlow begin="0" id="p107b" impatience="0.51" end="512" period="4">
    <walk from="-E107" to="E107"/>
  </personFlow>
  <personFlow begin="0" id="p108a" impatience="0.69" end="512" period="4">
    <walk from="E108" to="-E108"/>
  </personFlow>
  <personFlow begin="0" id="p108b" impatience="0.61" end="512" period="4">
    <walk from="-E108" to="E108"/>
  </personFlow>
    <personFlow begin="0" id="p213a" impatience="0.55" end="512" period="4">
    <walk from="E213" to="-E213"/>
  </personFlow>
  <personFlow begin="0" id="p213b" impatience="0.51" end="512" period="4">
    <walk from="-E213" to="E213"/>
  </personFlow>
  <personFlow begin="0" id="p215a" impatience="0.215" end="512" period="4">
    <walk from="E215" to="-E215"/>
  </personFlow>
  <personFlow begin="0" id="p215b" impatience="0.51" end="512" period="4">
    <walk from="-E215" to="E215"/>
  </personFlow>
  <personFlow begin="0" id="p111a" impatience="0.111" end="512" period="4">
    <walk from="E111" to="-E111"/>
  </personFlow>
  <personFlow begin="0" id="p111b" impatience="0.21" end="512" period="4">
    <walk from="-E111" to="E111"/>
  </personFlow>
  <personFlow begin="0" id="p126a" impatience="0.2676201" end="512" period="4">
    <walk from="E126" to="-E126"/>
  </personFlow>
  <personFlow begin="0" id="p126b" impatience="0.2800333" end="512" period="4">
    <walk from="-E126" to="E126"/>
  </personFlow>
  <personFlow begin="0" id="p127a" impatience="0.3672682" end="482" period="5">
    <walk from="E127" to="-E127"/>
  </personFlow>
  <personFlow begin="0" id="p127b" impatience="0.15071005" end="512" period="4">
    <walk from="-E127" to="E127"/>
  </personFlow>
  <personFlow begin="0" id="p128a" impatience="0.08357662" end="512" period="4">
    <walk from="E128" to="-E128"/>
  </personFlow>
  <personFlow begin="0" id="p128b" impatience="0.86806405" end="512" period="4">
    <walk from="-E128" to="E128"/>
  </personFlow>
  <personFlow begin="0" id="p129a" impatience="0.5717917" end="512" period="4">
    <walk from="E129" to="-E129"/>
  </personFlow>
  <personFlow begin="0" id="p129b" impatience="0.5953563" end="512" period="4">
    <walk from="-E129" to="E129"/>
  </personFlow>
  <personFlow begin="0" id="p132a" impatience="0.52298635" end="512" period="4">
    <walk from="E132" to="-E132"/>
  </personFlow>
  <personFlow begin="0" id="p132b" impatience="0.82995474" end="512" period="4">
    <walk from="-E132" to="E132"/>
  </personFlow>
  <personFlow begin="0" id="p133a" impatience="0.90086186" end="512" period="4">
    <walk from="E133" to="-E133"/>
  </personFlow>
  <personFlow begin="0" id="p133b" impatience="0.8400422" end="512" period="4">
    <walk from="-E133" to="E133"/>
  </personFlow>
  <personFlow begin="0" id="p134a" impatience="0.18680048" end="512" period="4">
    <walk from="E134" to="-E134"/>
  </personFlow>
  <personFlow begin="0" id="p134b" impatience="0.8864333" end="399" period="6">
    <walk from="-E134" to="E134"/>
  </personFlow>
  <personFlow begin="0" id="p137a" impatience="0.8505442" end="512" period="4">
    <walk from="E137" to="-E137"/>
  </personFlow>
  <personFlow begin="0" id="p137b" impatience="0.4452454" end="512" period="4">
    <walk from="-E137" to="E137"/>
  </personFlow>
  <personFlow begin="0" id="p138a" impatience="0.6684153" end="512" period="4">
    <walk from="E138" to="-E138"/>
  </personFlow>
  <personFlow begin="0" id="p138b" impatience="0.49837983" end="512" period="4">
    <walk from="-E138" to="E138"/>
  </personFlow>
      <personFlow begin="0" id="p139a" impatience="0.9278469" end="482" period="5">
        <walk from="E139" to="-E139"/>
    </personFlow>
    <personFlow begin="0" id="p139b" impatience="0.043536246" end="512" period="4">
        <walk from="-E139" to="E139"/>
    </personFlow>
    <personFlow begin="0" id="p140a" impatience="0.5586585" end="512" period="4">
        <walk from="E140" to="-E140"/>
    </personFlow>
    <personFlow begin="0" id="p140b" impatience="0.6287122" end="512" period="4">
        <walk from="-E140" to="E140"/>
    </personFlow>

    <personFlow begin="0" id="p145a" impatience="0.29869026" end="512" period="4">
        <walk from="E145" to="-E145"/>
    </personFlow>
    <personFlow begin="0" id="p145b" impatience="0.97447723" end="482" period="5">
        <walk from="-E145" to="E145"/>
    </personFlow>
    <personFlow begin="0" id="p146a" impatience="0.8802173" end="512" period="4">
        <walk from="E146" to="-E146"/>
    </personFlow>
    <personFlow begin="0" id="p146b" impatience="0.36000878" end="512" period="4">
        <walk from="-E146" to="E146"/>
    </personFlow>
    <personFlow begin="0" id="p147a" impatience="0.41322577" end="482" period="5">
        <walk from="E147" to="-E147"/>
    </personFlow>
    <personFlow begin="0" id="p147b" impatience="0.41260558" end="512" period="4">
        <walk from="-E147" to="E147"/>
    </personFlow>
    <personFlow begin="0" id="p148a" impatience="0.271855" end="512" period="4">
        <walk from="E148" to="-E148"/>
    </personFlow>
    <personFlow begin="0" id="p148b" impatience="0.8572092" end="512" period="4">
        <walk from="-E148" to="E148"/>
    </personFlow>
    <personFlow begin="0" id="p149a" impatience="0.5599121" end="482" period="5">
        <walk from="E149" to="-E149"/>
    </personFlow>
    <personFlow begin="0" id="p149b" impatience="0.08722746" end="512" period="4">
        <walk from="-E149" to="E149"/>
    </personFlow>
    <personFlow begin="0" id="p150a" impatience="0.6882501" end="512" period="4">
        <walk from="E150" to="-E150"/>
    </personFlow>
    <personFlow begin="0" id="p150b" impatience="0.94567573" end="512" period="4">
        <walk from="-E150" to="E150"/>
    </personFlow>
    <personFlow begin="0" id="p168a" impatience="0.18589187" end="482" period="5">
        <walk from="E168" to="-E168"/>
    </personFlow>
    <personFlow begin="0" id="p168b" impatience="0.0038580298" end="512" period="4">
        <walk from="-E168" to="E168"/>
    </personFlow>
    <personFlow begin="0" id="p169a" impatience="0.90212685" end="512" period="4">
        <walk from="E169" to="-E169"/>
    </personFlow>
    <personFlow begin="0" id="p169b" impatience="0.23771632" end="512" period="4">
        <walk from="-E169" to="E169"/>
    </personFlow>
    <personFlow begin="0" id="p173a" impatience="0.8433328" end="512" period="4">
        <walk from="E173" to="-E173"/>
    </personFlow>
    <personFlow begin="0" id="p173b" impatience="0.47000146" end="482" period="5">
        <walk from="-E173" to="E173"/>
    </personFlow>
    <personFlow begin="0" id="p174a" impatience="0.89116424" end="512" period="4">
        <walk from="E174" to="-E174"/>
    </personFlow>
    <personFlow begin="0" id="p174b" impatience="0.34796953" end="512" period="4">
        <walk from="-E174" to="E174"/>
    </personFlow>
    <personFlow begin="0" id="p175a" impatience="0.5433333" end="512" period="4">
        <walk from="E175" to="-E175"/>
    </personFlow>
    <personFlow begin="0" id="p175b" impatience="0.72903544" end="512" period="4">
        <walk from="-E175" to="E175"/>
    </personFlow>
    <personFlow begin="0" id="p177a" impatience="0.028154075" end="482" period="5">
        <walk from="E177" to="-E177"/>
    </personFlow>
    <personFlow begin="0" id="p177b" impatience="0.0096206665" end="482" period="5">
        <walk from="-E177" to="E177"/>
    </personFlow>
    <personFlow begin="0" id="p21a" impatience="0.39456546" end="512" period="4">
        <walk from="E21" to="-E21"/>
    </personFlow>
    <personFlow begin="0" id="p21b" impatience="0.5001689" end="512" period="4">
        <walk from="-E21" to="E21"/>
    </personFlow>
<personFlow begin="0" id="p194a" impatience="0.98363465" end="512" period="4">
        <walk from="E194" to="-E194"/>
    </personFlow>
    <personFlow begin="0" id="p194b" impatience="0.46342367" end="512" period="4">
        <walk from="-E194" to="E194"/>
    </personFlow>
    <personFlow begin="0" id="p195a" impatience="0.6196497" end="512" period="4">
        <walk from="E195" to="-E195"/>
    </personFlow>
    <personFlow begin="0" id="p195b" impatience="0.29863697" end="512" period="4">
        <walk from="-E195" to="E195"/>
    </personFlow>
    <personFlow begin="0" id="p197a" impatience="0.84478" end="512" period="4">
        <walk from="E197" to="-E197"/>
    </personFlow>
    <personFlow begin="0" id="p197b" impatience="0.76941454" end="482" period="5">
        <walk from="-E197" to="E197"/>
    </personFlow>
    <flow id="flow1" type="agv" route="route_1" begin="1" period="60" minGap="1.10" maxSpeed="4.00" number="1"/>
 
  <personFlow begin="1" id="p98c" impatience="0.57" end="512" period="4">
    <walk from="E98" to="-E98"/>
  </personFlow>
  <personFlow begin="1" id="p98d" impatience="0.63" end="512" period="4">
    <walk from="-E98" to="E98"/>
  </personFlow>
  <personFlow begin="1" id="p99c" impatience="0.75" end="512" period="4">
    <walk from="E99" to="-E99"/>
  </personFlow>
  <personFlow begin="1" id="p99d" impatience="0.45" end="512" period="4">
    <walk from="-E99" to="E99"/>
  </personFlow>
  <personFlow begin="1" id="p13a" impatience="0.05" end="512" period="4">
    <walk from="E13" to="-E13"/>
  </personFlow>
  <personFlow begin="1" id="p13b" impatience="0.95" end="512" period="4">
    <walk from="-E13" to="E13"/>
  </personFlow>
  <personFlow begin="1" id="p130a" impatience="0.49" end="512" period="4">
    <walk from="E130" to="-E130"/>
  </personFlow>
  <personFlow begin="1" id="p130b" impatience="0.51" end="482" period="5">
    <walk from="-E130" to="E130"/>
  </personFlow>
  <personFlow begin="1" id="p135a" impatience="0.51" end="512" period="4">
    <walk from="E135" to="-E135"/>
  </personFlow>
  <personFlow begin="1" id="p135b" impatience="0.49" end="512" period="4">
    <walk from="-E135" to="E135"/>
  </personFlow>
  <personFlow begin="1" id="p136a" impatience="0.51" end="512" period="4">
    <walk from="E136" to="-E136"/>
  </personFlow>
  <personFlow begin="1" id="p136b" impatience="0.49" end="512" period="4">
    <walk from="-E136" to="E136"/>
  </personFlow>
<personFlow begin="1" id="p14a" impatience="0.05" end="1501" period="10">
    <walk from="E14" to="-E14"/>
  </personFlow>
  <personFlow begin="1" id="p14b" impatience="0.95" end="512" period="4">
    <walk from="-E14" to="E14"/>
  </personFlow>
  <personFlow begin="1" id="p141a" impatience="0.53" end="512" period="4">
    <walk from="E141" to="-E141"/>
  </personFlow>
  <personFlow begin="1" id="p141b" impatience="0.47" end="512" period="4">
    <walk from="-E141" to="E141"/>
  </personFlow>
  <personFlow begin="1" id="p142a" impatience="0.53" end="512" period="4">
    <walk from="E142" to="-E142"/>
  </personFlow>
  <personFlow begin="1" id="p142b" impatience="0.47" end="512" period="4">
    <walk from="-E142" to="E142"/>
  </personFlow>
  <personFlow begin="1" id="p143a" impatience="0.54" end="512" period="4">
    <walk from="E143" to="-E143"/>
  </personFlow>
  <personFlow begin="1" id="p143b" impatience="0.46" end="512" period="4">
    <walk from="-E143" to="E143"/>
  </personFlow>
  <personFlow begin="1" id="p144a" impatience="0.54" end="512" period="4">
    <walk from="E144" to="-E144"/>
  </personFlow>
  <personFlow begin="1" id="p144b" impatience="0.46" end="512" period="4">
    <walk from="-E144" to="E144"/>
  </personFlow>
  <!--Them mot so personFlow de tuyen duong "roi khoi Knowledge Center"/"di vao EC Center" them dong duc-->
  <personFlow begin="1" id="p131c" impatience="0.8505442" end="612" period="4">
    <walk from="E131" to="-E131"/>
  </personFlow>
  <personFlow begin="1" id="p131d" impatience="0.52454" end="612" period="4">
    <walk from="-E131" to="E131"/>
  </personFlow>
  <personFlow begin="1" id="p112c" impatience="0.6684153" end="612" period="4">
    <walk from="E112" to="-E112"/>
  </personFlow>
  <personFlow begin="1" id="p112d" impatience="0.9837983" end="612" period="4">
    <walk from="-E112" to="E112"/>
  </personFlow>
    <personFlow begin="1" id="p131e" impatience="0.9278469" end="582" period="4">
        <walk from="E131" to="-E131"/>
    </personFlow>
    <personFlow begin="1" id="p131f" impatience="0.6246" end="612" period="4">
        <walk from="-E131" to="E131"/>
    </personFlow>
    <personFlow begin="1" id="p132c" impatience="0.9278469" end="582" period="4">
        <walk from="E132" to="-E132"/>
    </personFlow>
    <personFlow begin="1" id="p132d" impatience="0.6246" end="612" period="4">
        <walk from="-E132" to="E132"/>
    </personFlow>
<personFlow begin="1" id="p137c" impatience="0.8505442" end="612" period="4">
    <walk from="E137" to="-E137"/>
  </personFlow>
  <personFlow begin="1" id="p137d" impatience="0.52454" end="612" period="4">
    <walk from="-E137" to="E137"/>
  </personFlow>
  <personFlow begin="1" id="p138c" impatience="0.6684153" end="612" period="4">
    <walk from="E138" to="-E138"/>
  </personFlow>
  <personFlow begin="1" id="p138d" impatience="0.9837983" end="612" period="4">
    <walk from="-E138" to="E138"/>
  </personFlow>
      <personFlow begin="1" id="p139c" impatience="0.9278469" end="582" period="4">
        <walk from="E139" to="-E139"/>
    </personFlow>
    <personFlow begin="1" id="p139d" impatience="0.6246" end="612" period="4">
        <walk from="-E139" to="E139"/>
    </personFlow>
    <personFlow begin="1" id="p139e" impatience="0.6246" end="612" period="2">
        <walk from="E139" to="-E140"/>
    </personFlow>
    <personFlow begin="1" id="p139f" impatience="0.6246" end="612" period="2">
        <walk from="E140" to="-E139"/>
    </personFlow>
    <personFlow begin="1" id="p140c" impatience="0.5586585" end="612" period="4">
        <walk from="E140" to="-E140"/>
    </personFlow>
    <personFlow begin="1" id="p140d" impatience="0.6287122" end="612" period="4">
        <walk from="-E140" to="E140"/>
    </personFlow>

    <personFlow begin="1" id="p145c" impatience="0.9869026" end="612" period="4">
        <walk from="E145" to="-E145"/>
    </personFlow>
    <personFlow begin="1" id="p145d" impatience="0.97447723" end="582" period="4">
        <walk from="-E145" to="E145"/>
    </personFlow>
    <personFlow begin="1" id="p146c" impatience="0.8802173" end="612" period="4">
        <walk from="E146" to="-E146"/>
    </personFlow>
    <personFlow begin="1" id="p146d" impatience="0.6000878" end="612" period="4">
        <walk from="-E146" to="E146"/>
    </personFlow>
    <personFlow begin="1" id="p146e" impatience="0.8802173" end="612" period="2">
        <walk from="E146" to="-E147"/>
    </personFlow>
    <personFlow begin="1" id="p146f" impatience="0.6000878" end="612" period="2">
        <walk from="-E146" to="E147"/>
    </personFlow>
    <personFlow begin="1" id="p147c" impatience="0.41322577" end="582" period="4">
        <walk from="E147" to="-E147"/>
    </personFlow>
    <personFlow begin="1" id="p147d" impatience="0.60558" end="612" period="4">
        <walk from="-E147" to="E147"/>
    </personFlow>
    <personFlow begin="1" id="p148c" impatience="0.71855" end="612" period="4">
        <walk from="E148" to="-E148"/>
    </personFlow>
    <personFlow begin="1" id="p148d" impatience="0.8572092" end="612" period="4">
        <walk from="-E148" to="E148"/>
    </personFlow>
    <personFlow begin="1" id="p148e" impatience="0.8802173" end="612" period="2">
        <walk from="E148" to="-E149"/>
    </personFlow>
    <personFlow begin="1" id="p148f" impatience="0.6000878" end="612" period="2">
        <walk from="-E148" to="E149"/>
    </personFlow>
    <personFlow begin="1" id="p149c" impatience="0.5599121" end="582" period="4">
        <walk from="E149" to="-E149"/>
    </personFlow>
    <personFlow begin="1" id="p149d" impatience="0.8722746" end="612" period="4">
        <walk from="-E149" to="E149"/>
    </personFlow>
    <personFlow begin="1" id="p150c" impatience="0.6882501" end="612" period="4">
        <walk from="E150" to="-E150"/>
    </personFlow>
    <personFlow begin="1" id="p150d" impatience="0.94567573" end="612" period="4">
        <walk from="-E150" to="E150"/>
    </personFlow>
    <personFlow begin="1" id="p150e" impatience="0.8802173" end="612" period="2">
        <walk from="E150" to="-E22"/>
    </personFlow>